Circuit: * C:\Users\Dell\Desktop\Draft1.asc

